Version 4
SHEET 1 2772 964
WIRE 720 32 720 0
WIRE 1760 64 1712 64
WIRE 1840 64 1824 64
WIRE 1520 80 1520 48
WIRE 1360 96 1232 96
WIRE 1488 96 1360 96
WIRE -48 112 -48 80
WIRE 1568 112 1552 112
WIRE 1712 112 1712 64
WIRE 1712 112 1648 112
WIRE 1840 112 1840 64
WIRE 1872 112 1840 112
WIRE -208 128 -336 128
WIRE -80 128 -208 128
WIRE 1360 128 1360 96
WIRE 1488 128 1456 128
WIRE 0 144 -16 144
WIRE 144 144 80 144
WIRE 720 144 720 112
WIRE 816 144 720 144
WIRE 1712 144 1712 112
WIRE 1712 144 1696 144
WIRE 1760 144 1712 144
WIRE 1840 144 1840 112
WIRE 2592 144 2544 144
WIRE 2672 144 2656 144
WIRE -208 160 -208 128
WIRE -80 160 -112 160
WIRE 720 176 720 144
WIRE 816 176 816 144
WIRE 1520 192 1520 144
WIRE 1824 192 1648 192
WIRE 1872 192 1872 112
WIRE 1872 192 1824 192
WIRE 2544 192 2544 144
WIRE 2544 192 2384 192
WIRE 2672 192 2672 144
WIRE 2704 192 2672 192
WIRE -48 224 -48 176
WIRE 256 224 80 224
WIRE 304 224 304 144
WIRE 304 224 256 224
WIRE 1360 224 1360 192
WIRE 1456 224 1456 128
WIRE 1456 224 1360 224
WIRE 2544 224 2544 192
WIRE 2592 224 2544 224
WIRE 2672 224 2672 192
WIRE -208 256 -208 224
WIRE -112 256 -112 160
WIRE -112 256 -208 256
WIRE 1232 256 1232 96
WIRE 1360 272 1360 224
WIRE 1648 272 1648 192
WIRE 1824 272 1824 192
WIRE -336 288 -336 128
WIRE 720 288 720 256
WIRE 1872 288 1872 192
WIRE -208 304 -208 256
WIRE 80 304 80 224
WIRE 256 304 256 224
WIRE 2384 304 2384 192
WIRE 304 320 304 224
WIRE 2704 352 2704 192
WIRE 1360 368 1360 352
WIRE 2704 368 2704 352
WIRE 1648 384 1648 336
WIRE 1824 384 1824 352
WIRE 1824 384 1648 384
WIRE 1872 384 1872 352
WIRE 1872 384 1824 384
WIRE -208 400 -208 384
WIRE 1824 400 1824 384
WIRE 2384 400 2384 384
WIRE 2384 400 2368 400
WIRE 80 416 80 368
WIRE 256 416 256 384
WIRE 256 416 80 416
WIRE 304 416 304 384
WIRE 304 416 256 416
WIRE 256 432 256 416
WIRE 2704 448 2704 432
WIRE 1520 624 1520 592
WIRE 1360 640 1232 640
WIRE 1488 640 1360 640
WIRE 1872 640 1856 640
WIRE 1936 640 1872 640
WIRE 2112 640 2096 640
WIRE 1568 656 1552 656
WIRE 1856 656 1856 640
WIRE 1856 656 1648 656
WIRE 1360 672 1360 640
WIRE 1488 672 1456 672
WIRE 2112 672 2112 640
WIRE 1520 736 1520 688
WIRE 1824 736 1648 736
WIRE 1872 736 1872 640
WIRE 1872 736 1824 736
WIRE 1360 768 1360 736
WIRE 1456 768 1456 672
WIRE 1456 768 1360 768
WIRE 1232 800 1232 640
WIRE 1360 816 1360 768
WIRE 1648 816 1648 736
WIRE 1824 816 1824 736
WIRE 1872 832 1872 736
WIRE 1360 912 1360 896
WIRE 1648 928 1648 880
WIRE 1824 928 1824 896
WIRE 1824 928 1648 928
WIRE 1872 928 1872 896
WIRE 1872 928 1824 928
WIRE 1824 944 1824 928
FLAG 816 176 0
FLAG 720 288 -5V
FLAG 720 0 +5V
FLAG -48 80 +5V
FLAG -48 224 -5V
FLAG -208 400 0
FLAG 256 432 0
FLAG -336 288 0
FLAG 1520 48 +5V
FLAG 1520 192 -5V
FLAG 1360 368 0
FLAG 1824 400 0
FLAG 1232 256 0
FLAG 2368 400 0
FLAG 2704 448 0
FLAG 1520 592 +5V
FLAG 1520 736 -5V
FLAG 1360 912 0
FLAG 1824 944 0
FLAG 1232 800 0
FLAG 2112 672 0
SYMBOL voltage 720 16 R0
WINDOW 123 0 0 Left 0
WINDOW 39 0 0 Left 0
SYMATTR InstName V1
SYMATTR Value 15
SYMBOL voltage 720 160 R0
WINDOW 123 0 0 Left 0
WINDOW 39 0 0 Left 0
SYMATTR InstName V2
SYMATTR Value 15
SYMBOL voltage -208 288 R0
WINDOW 123 24 124 Left 2
WINDOW 39 0 0 Left 0
SYMATTR Value2 AC 1
SYMATTR InstName V3
SYMATTR Value SINE()
SYMBOL res 96 128 R90
WINDOW 0 0 56 VBottom 2
WINDOW 3 32 56 VTop 2
SYMATTR InstName R1
SYMATTR Value 25
SYMBOL res 272 400 R180
WINDOW 0 36 76 Left 2
WINDOW 3 36 40 Left 2
SYMATTR InstName R2
SYMATTR Value 10E13
SYMBOL cap -224 160 R0
SYMATTR InstName C1
SYMATTR Value 3p
SYMBOL OpAmps\\UniversalOpAmp3 -48 144 R0
SYMATTR InstName U2
SYMATTR Value2 Avol=5.0119Meg GBW=1Meg Slew=0.8Meg
SYMATTR SpiceLine Ilimit=25m Rail=0 Vos=0 Phimargin=60
SYMATTR SpiceLine2 En=0 Enk=0 In=0 Ink=0 Rin=100Meg
SYMBOL cap 288 320 R0
SYMATTR InstName C2
SYMATTR Value 20µ
SYMBOL cap 64 304 R0
SYMATTR InstName C3
SYMATTR Value 2.5p
SYMBOL ind 128 160 R270
WINDOW 0 32 56 VTop 2
WINDOW 3 5 56 VBottom 2
SYMATTR InstName L1
SYMATTR Value 0.00023684
SYMBOL res 320 128 R90
WINDOW 0 0 56 VBottom 2
WINDOW 3 32 56 VTop 2
SYMATTR InstName R3
SYMATTR Value 775m
SYMBOL voltage 1360 256 R0
WINDOW 123 24 124 Left 2
WINDOW 39 0 0 Left 0
SYMATTR Value2 AC 1
SYMATTR InstName V6
SYMATTR Value SINE()
SYMBOL res 1664 96 R90
WINDOW 0 0 56 VBottom 2
WINDOW 3 32 56 VTop 2
SYMATTR InstName R4
SYMATTR Value 25
SYMBOL res 1840 368 R180
WINDOW 0 36 76 Left 2
WINDOW 3 36 40 Left 2
SYMATTR InstName R5
SYMATTR Value 10E13
SYMBOL cap 1344 128 R0
SYMATTR InstName C4
SYMATTR Value 3p
SYMBOL OpAmps\\UniversalOpAmp3 1520 112 R0
SYMATTR InstName U1
SYMATTR Value2 Avol=5.0119Meg GBW=1Meg Slew=0.8Meg
SYMATTR SpiceLine Ilimit=25m Rail=0 Vos=0 Phimargin=60
SYMATTR SpiceLine2 En=0 Enk=0 In=0 Ink=0 Rin=100Meg
SYMBOL cap 1856 288 R0
SYMATTR InstName C5
SYMATTR Value 20µ
SYMBOL cap 1632 272 R0
SYMATTR InstName C6
SYMATTR Value 2.5p
SYMBOL cap 1824 48 R90
WINDOW 0 0 32 VBottom 2
WINDOW 3 32 32 VTop 2
SYMATTR InstName C7
SYMATTR Value 1µ
SYMBOL res 1856 128 R90
WINDOW 0 0 56 VBottom 2
WINDOW 3 32 56 VTop 2
SYMATTR InstName R6
SYMATTR Value 1k
SYMBOL voltage 2384 288 R0
WINDOW 123 24 124 Left 2
WINDOW 39 0 0 Left 0
SYMATTR Value2 AC 1
SYMATTR InstName V4
SYMATTR Value SINE()
SYMBOL cap 2656 128 R90
WINDOW 0 0 32 VBottom 2
WINDOW 3 32 32 VTop 2
SYMATTR InstName C8
SYMATTR Value 1µ
SYMBOL res 2688 208 R90
WINDOW 0 0 56 VBottom 2
WINDOW 3 32 56 VTop 2
SYMATTR InstName R7
SYMATTR Value 1k
SYMBOL res 2688 336 R0
SYMATTR InstName R8
SYMATTR Value 10k
SYMBOL voltage 1360 800 R0
WINDOW 123 24 124 Left 2
WINDOW 39 0 0 Left 0
SYMATTR Value2 AC 1
SYMATTR InstName V5
SYMATTR Value SINE()
SYMBOL res 1664 640 R90
WINDOW 0 0 56 VBottom 2
WINDOW 3 32 56 VTop 2
SYMATTR InstName R9
SYMATTR Value 25
SYMBOL res 1840 912 R180
WINDOW 0 36 76 Left 2
WINDOW 3 36 40 Left 2
SYMATTR InstName R10
SYMATTR Value 10E13
SYMBOL cap 1344 672 R0
SYMATTR InstName C9
SYMATTR Value 3p
SYMBOL OpAmps\\UniversalOpAmp3 1520 656 R0
SYMATTR InstName U3
SYMATTR Value2 Avol=5.0119Meg GBW=1Meg Slew=0.8Meg
SYMATTR SpiceLine Ilimit=25m Rail=0 Vos=0 Phimargin=60
SYMATTR SpiceLine2 En=0 Enk=0 In=0 Ink=0 Rin=100Meg
SYMBOL cap 1856 832 R0
SYMATTR InstName C10
SYMATTR Value 20µ
SYMBOL cap 1632 816 R0
SYMATTR InstName C11
SYMATTR Value 2.5p
SYMBOL ind 1920 656 R270
WINDOW 0 32 56 VTop 2
WINDOW 3 5 56 VBottom 2
SYMATTR InstName L2
SYMATTR Value 0.00023684
SYMBOL res 2112 624 R90
WINDOW 0 0 56 VBottom 2
WINDOW 3 32 56 VTop 2
SYMATTR InstName R11
SYMATTR Value 775m
TEXT 824 272 Left 2 ;.tran 0 1m 0 1u
TEXT 824 304 Left 2 !.ac dec 1000 0.001 10Meg
