Version 4
SHEET 1 880 1096
WIRE 80 128 32 128
WIRE 240 128 192 128
WIRE 304 128 240 128
WIRE 80 224 80 128
WIRE 112 224 80 224
WIRE 240 224 240 128
WIRE 240 224 176 224
WIRE 32 336 32 128
WIRE 80 336 32 336
WIRE 240 336 192 336
WIRE 304 336 304 128
WIRE 304 336 240 336
WIRE 80 432 80 336
WIRE 112 432 80 432
WIRE 240 432 240 336
WIRE 240 432 176 432
WIRE 32 560 32 336
WIRE 80 560 32 560
WIRE 240 560 192 560
WIRE 304 560 304 336
WIRE 304 560 240 560
WIRE 80 656 80 560
WIRE 112 656 80 656
WIRE 240 656 240 560
WIRE 240 656 176 656
WIRE -848 768 -1008 768
WIRE -672 768 -848 768
WIRE -480 768 -672 768
WIRE -304 768 -400 768
WIRE 32 768 32 560
WIRE 32 768 -304 768
WIRE 80 768 32 768
WIRE 112 768 80 768
WIRE 240 768 192 768
WIRE 304 768 304 560
WIRE 304 768 240 768
WIRE 384 768 304 768
WIRE 544 768 464 768
WIRE 624 768 544 768
WIRE 816 768 624 768
WIRE -672 784 -672 768
WIRE 544 800 544 768
WIRE -848 832 -848 768
WIRE 80 864 80 768
WIRE 112 864 80 864
WIRE 240 864 240 768
WIRE 240 864 176 864
WIRE -304 880 -304 768
WIRE 544 912 544 880
WIRE 624 912 624 768
WIRE 816 912 816 880
WIRE -1008 944 -1008 768
WIRE -672 944 -672 864
WIRE -304 992 -304 960
WIRE 576 1008 544 1008
WIRE 624 1008 624 976
WIRE 624 1008 576 1008
WIRE -1008 1040 -1008 1008
WIRE -848 1040 -848 912
WIRE -848 1040 -1008 1040
WIRE -720 1040 -848 1040
WIRE -672 1040 -720 1040
WIRE 576 1056 576 1008
WIRE -720 1072 -720 1040
FLAG -304 992 0
FLAG 576 1056 0
FLAG 816 912 0
FLAG -720 1072 0
SYMBOL res 208 112 R90
WINDOW 0 0 56 VBottom 2
WINDOW 3 32 56 VTop 2
SYMATTR InstName R1
SYMATTR Value 1
SYMBOL cap 176 208 R90
WINDOW 0 0 32 VBottom 2
WINDOW 3 32 32 VTop 2
SYMATTR InstName C1
SYMATTR Value 0.9p
SYMBOL res 208 320 R90
WINDOW 0 0 56 VBottom 2
WINDOW 3 32 56 VTop 2
SYMATTR InstName R2
SYMATTR Value 10
SYMBOL cap 176 416 R90
WINDOW 0 0 32 VBottom 2
WINDOW 3 32 32 VTop 2
SYMATTR InstName C2
SYMATTR Value 0.9p
SYMBOL res 208 544 R90
WINDOW 0 0 56 VBottom 2
WINDOW 3 32 56 VTop 2
SYMATTR InstName R3
SYMATTR Value 100
SYMBOL cap 176 640 R90
WINDOW 0 0 32 VBottom 2
WINDOW 3 32 32 VTop 2
SYMATTR InstName C3
SYMATTR Value 0.9p
SYMBOL res 208 752 R90
WINDOW 0 0 56 VBottom 2
WINDOW 3 32 56 VTop 2
SYMATTR InstName R4
SYMATTR Value 100k
SYMBOL cap 176 848 R90
WINDOW 0 0 32 VBottom 2
WINDOW 3 32 32 VTop 2
SYMATTR InstName C4
SYMATTR Value 0.9p
SYMBOL voltage -304 864 R0
WINDOW 123 24 124 Left 2
WINDOW 39 0 0 Left 0
SYMATTR InstName V1
SYMATTR Value ""
SYMATTR Value2 AC 1
SYMBOL cap 608 912 R0
SYMATTR InstName C5
SYMATTR Value 50p
SYMBOL ind 528 784 R0
SYMATTR InstName L1
SYMATTR Value 1µ
SYMBOL res 528 896 R0
SYMATTR InstName R5
SYMATTR Value 1
SYMBOL cap 800 816 R0
SYMATTR InstName C6
SYMATTR Value 25p
SYMBOL res 480 752 R90
WINDOW 0 0 56 VBottom 2
WINDOW 3 32 56 VTop 2
SYMATTR InstName R6
SYMATTR Value 0.001
SYMBOL res -384 752 R90
WINDOW 0 0 56 VBottom 2
WINDOW 3 32 56 VTop 2
SYMATTR InstName R7
SYMATTR Value 0.01
SYMBOL cap -688 944 R0
SYMATTR InstName C8
SYMATTR Value 96p
SYMBOL res -864 816 R0
SYMATTR InstName R8
SYMATTR Value 100k
SYMBOL res -688 768 R0
SYMATTR InstName R9
SYMATTR Value 20k20
SYMBOL cap -1024 944 R0
SYMATTR InstName C7
SYMATTR Value 119.46p
TEXT -336 1080 Left 2 !.ac dec 1000 1 10E6
