Version 4
SHEET 1 2248 1300
WIRE 496 -752 384 -752
WIRE 384 -672 384 -752
WIRE 400 -672 384 -672
WIRE 496 -656 496 -752
WIRE 496 -656 464 -656
WIRE 544 -656 496 -656
WIRE 640 -656 624 -656
WIRE 816 -656 640 -656
WIRE 944 -656 896 -656
WIRE 400 -640 32 -640
WIRE 1232 -624 1136 -624
WIRE 1344 -624 1312 -624
WIRE 640 -560 640 -656
WIRE 688 -560 640 -560
WIRE 944 -544 944 -656
WIRE 944 -544 752 -544
WIRE 1008 -544 944 -544
WIRE 1136 -544 1136 -624
WIRE 1136 -544 1088 -544
WIRE 1168 -544 1136 -544
WIRE 496 -528 384 -528
WIRE 688 -528 640 -528
WIRE 1344 -528 1344 -624
WIRE 1344 -528 1232 -528
WIRE 1376 -528 1344 -528
WIRE 1168 -512 1136 -512
WIRE 1136 -480 1136 -512
WIRE 384 -448 384 -528
WIRE 400 -448 384 -448
WIRE 496 -432 496 -528
WIRE 496 -432 464 -432
WIRE 544 -432 496 -432
WIRE 640 -432 640 -528
WIRE 640 -432 624 -432
WIRE 816 -432 640 -432
WIRE 960 -432 896 -432
WIRE 400 -416 304 -416
WIRE 1136 -208 1024 -208
WIRE 1024 -128 1024 -208
WIRE 1040 -128 1024 -128
WIRE 1136 -112 1136 -208
WIRE 1136 -112 1104 -112
WIRE 1184 -112 1136 -112
WIRE 1280 -112 1264 -112
WIRE 1456 -112 1280 -112
WIRE 1584 -112 1536 -112
WIRE 1040 -96 688 -96
WIRE 1280 -16 1280 -112
WIRE 1328 -16 1280 -16
WIRE 1584 0 1392 0
WIRE 1648 0 1584 0
WIRE 1136 16 1024 16
WIRE 1328 16 1280 16
WIRE 1024 96 1024 16
WIRE 1040 96 1024 96
WIRE 1136 112 1136 16
WIRE 1136 112 1104 112
WIRE 1184 112 1136 112
WIRE 1280 112 1280 16
WIRE 1280 112 1264 112
WIRE 1456 112 1280 112
WIRE 1584 112 1584 0
WIRE 1584 112 1536 112
WIRE 1040 128 768 128
WIRE -176 768 -304 768
WIRE -48 768 -96 768
WIRE 32 768 32 -640
WIRE 32 768 -48 768
WIRE 64 768 32 768
WIRE 192 768 144 768
WIRE 304 768 304 -416
WIRE 304 768 192 768
WIRE 352 768 304 768
WIRE 560 768 432 768
WIRE 688 768 688 -96
WIRE 688 768 560 768
WIRE 560 784 560 768
WIRE -48 864 -48 768
WIRE 80 864 -48 864
WIRE 192 864 192 768
WIRE 192 864 144 864
WIRE 560 864 560 848
WIRE -304 880 -304 768
WIRE 688 912 688 880
WIRE 688 912 624 912
WIRE 768 912 768 128
WIRE 768 912 688 912
WIRE -304 992 -304 960
WIRE -304 992 -352 992
WIRE 304 992 304 768
WIRE 304 992 96 992
WIRE -352 1008 -352 992
WIRE -304 1040 -304 992
WIRE 32 1120 32 768
WIRE -304 1184 -304 1120
WIRE -176 1184 -304 1184
WIRE 560 1184 -96 1184
WIRE 688 1184 688 912
WIRE 688 1184 560 1184
WIRE 560 1264 560 1248
FLAG -352 1008 0
FLAG -624 -640 VCC
FLAG 432 -688 VCC
FLAG -512 -640 VEE
FLAG 432 -624 VEE
FLAG -512 -560 0
FLAG -624 -560 0
FLAG 432 -464 VCC
FLAG 432 -400 VEE
FLAG 720 -576 VCC
FLAG 720 -512 VEE
FLAG 960 -432 0
FLAG 1072 -144 VCC
FLAG 1072 -80 VEE
FLAG 1072 80 VCC
FLAG 1072 144 VEE
FLAG 1360 32 VCC
FLAG 1360 -32 VEE
FLAG 1584 -112 0
FLAG 1200 -560 VCC
FLAG 1200 -496 VEE
FLAG 1136 -480 0
FLAG 1376 -528 I
FLAG 1648 0 v
FLAG 560 1264 0
FLAG 560 944 0
SYMBOL res 48 784 R270
WINDOW 0 32 56 VTop 2
WINDOW 3 0 56 VBottom 2
SYMATTR InstName R4
SYMATTR Value 10k
SYMBOL voltage -304 864 R0
WINDOW 123 24 124 Left 2
WINDOW 39 0 0 Left 0
SYMATTR Value2 AC 0.5
SYMATTR InstName V1
SYMATTR Value ""
SYMBOL res 672 784 R0
SYMATTR InstName R5
SYMATTR Value 100
SYMBOL voltage -304 1024 R0
WINDOW 123 24 124 Left 2
WINDOW 39 0 0 Left 0
SYMATTR Value2 AC 0.5 0
SYMATTR InstName V2
SYMATTR Value ""
SYMBOL OpAmps\\UniversalOpAmp2 432 -656 R0
SYMATTR InstName U1
SYMATTR Value2 Avol=100Meg GBW=100000Meg Slew=1000000Meg
SYMATTR SpiceLine2 En=0 Enk=0 In=0 Ink=0 Rin=5000000Meg
SYMBOL voltage -624 -656 R0
WINDOW 123 0 0 Left 0
WINDOW 39 0 0 Left 0
SYMATTR InstName V3
SYMATTR Value 5
SYMBOL voltage -512 -656 R0
WINDOW 123 0 0 Left 0
WINDOW 39 0 0 Left 0
SYMATTR InstName V4
SYMATTR Value -5
SYMBOL OpAmps\\UniversalOpAmp2 432 -432 R0
SYMATTR InstName U2
SYMATTR Value2 Avol=100Meg GBW=100000Meg Slew=1000000Meg
SYMATTR SpiceLine2 En=0 Enk=0 In=0 Ink=0 Rin=5000000Meg
SYMBOL res 640 -672 R90
WINDOW 0 0 56 VBottom 2
WINDOW 3 32 56 VTop 2
SYMATTR InstName R22
SYMATTR Value 1k
SYMBOL res 640 -448 R90
WINDOW 0 0 56 VBottom 2
WINDOW 3 32 56 VTop 2
SYMATTR InstName R23
SYMATTR Value 1k
SYMBOL res 912 -672 R90
WINDOW 0 0 56 VBottom 2
WINDOW 3 32 56 VTop 2
SYMATTR InstName R24
SYMATTR Value 1k
SYMBOL res 912 -448 R90
WINDOW 0 0 56 VBottom 2
WINDOW 3 32 56 VTop 2
SYMATTR InstName R25
SYMATTR Value 1k
SYMBOL OpAmps\\UniversalOpAmp2 720 -544 R0
SYMATTR InstName U3
SYMATTR Value2 Avol=100Meg GBW=100000Meg Slew=1000000Meg
SYMATTR SpiceLine2 En=0 Enk=0 In=0 Ink=0 Rin=5000000Meg
SYMBOL OpAmps\\UniversalOpAmp2 1072 -112 R0
SYMATTR InstName U4
SYMATTR Value2 Avol=100Meg GBW=100000000000Meg Slew=1000000Meg
SYMATTR SpiceLine2 En=0 Enk=0 In=0 Ink=0 Rin=5000000Meg
SYMBOL res 1280 -128 R90
WINDOW 0 0 56 VBottom 2
WINDOW 3 32 56 VTop 2
SYMATTR InstName R26
SYMATTR Value 1k
SYMBOL res 1280 96 R90
WINDOW 0 0 56 VBottom 2
WINDOW 3 32 56 VTop 2
SYMATTR InstName R27
SYMATTR Value 1k
SYMBOL res 1552 -128 R90
WINDOW 0 0 56 VBottom 2
WINDOW 3 32 56 VTop 2
SYMATTR InstName R28
SYMATTR Value 1k
SYMBOL res 1552 96 R90
WINDOW 0 0 56 VBottom 2
WINDOW 3 32 56 VTop 2
SYMATTR InstName R29
SYMATTR Value 1k
SYMBOL res -80 752 R90
WINDOW 0 0 56 VBottom 2
WINDOW 3 32 56 VTop 2
SYMATTR InstName R30
SYMATTR Value 10
SYMBOL res -80 1168 R90
WINDOW 0 0 56 VBottom 2
WINDOW 3 32 56 VTop 2
SYMATTR InstName R31
SYMATTR Value 10
SYMBOL OpAmps\\UniversalOpAmp2 1200 -528 R0
SYMATTR InstName U7
SYMATTR Value2 Avol=100Meg GBW=100000Meg Slew=1000000Meg
SYMATTR SpiceLine2 En=0 Enk=0 In=0 Ink=0 Rin=5000000Meg
SYMBOL res 1104 -560 R90
WINDOW 0 0 56 VBottom 2
WINDOW 3 32 56 VTop 2
SYMATTR InstName R1
SYMATTR Value 1k
SYMBOL res 1328 -640 R90
WINDOW 0 0 56 VBottom 2
WINDOW 3 32 56 VTop 2
SYMATTR InstName R2
SYMATTR Value 1k
SYMBOL OpAmps\\UniversalOpAmp2 1072 112 R0
SYMATTR InstName U5
SYMATTR Value2 Avol=100Meg GBW=100000000000Meg Slew=1000000Meg
SYMATTR SpiceLine2 En=0 Enk=0 In=0 Ink=0 Rin=5000000Meg
SYMBOL OpAmps\\UniversalOpAmp2 1360 0 M180
SYMATTR InstName U6
SYMATTR Value2 Avol=100Meg GBW=100000000000Meg Slew=1000000Meg
SYMATTR SpiceLine2 En=0 Enk=0 In=0 Ink=0 Rin=5000000Meg
SYMBOL cap 144 848 R90
WINDOW 0 0 32 VBottom 2
WINDOW 3 32 32 VTop 2
SYMATTR InstName C2
SYMATTR Value 2p
SYMBOL cap 544 784 R0
SYMATTR InstName C10
SYMATTR Value 64p
SYMBOL res 336 784 R270
WINDOW 0 32 56 VTop 2
WINDOW 3 0 56 VBottom 2
SYMATTR InstName R6
SYMATTR Value 0.001
SYMBOL cap 544 1184 R0
SYMATTR InstName C1
SYMBOL res 544 848 R0
SYMATTR InstName R3
SYMATTR Value 2500
TEXT -656 1168 Left 2 !.ac dec 1000 1 10E6
