Version 4
SHEET 1 2248 1300
WIRE 2016 -288 1968 -288
WIRE 2176 -288 2128 -288
WIRE 2240 -288 2176 -288
WIRE 112 -256 96 -256
WIRE 304 -256 192 -256
WIRE 2016 -192 2016 -288
WIRE 2048 -192 2016 -192
WIRE 2176 -192 2176 -288
WIRE 2176 -192 2112 -192
WIRE 1968 -80 1968 -288
WIRE 2016 -80 1968 -80
WIRE 2176 -80 2128 -80
WIRE 2240 -80 2240 -288
WIRE 2240 -80 2176 -80
WIRE 32 -48 32 -256
WIRE 112 -48 96 -48
WIRE 304 -48 304 -256
WIRE 304 -48 192 -48
WIRE 2016 16 2016 -80
WIRE 2048 16 2016 16
WIRE 2176 16 2176 -80
WIRE 2176 16 2112 16
WIRE 1968 144 1968 -80
WIRE 2016 144 1968 144
WIRE 2176 144 2128 144
WIRE 2240 144 2240 -80
WIRE 2240 144 2176 144
WIRE 32 176 32 -48
WIRE 112 176 96 176
WIRE 304 176 304 -48
WIRE 304 176 192 176
WIRE 2016 240 2016 144
WIRE 2048 240 2016 240
WIRE 2176 240 2176 144
WIRE 2176 240 2112 240
WIRE 1968 352 1968 144
WIRE 2016 352 1968 352
WIRE 2176 352 2128 352
WIRE 2240 352 2240 144
WIRE 2240 352 2176 352
WIRE 32 384 32 176
WIRE 112 384 96 384
WIRE 304 384 304 176
WIRE 304 384 192 384
WIRE 2016 448 2016 352
WIRE 2048 448 2016 448
WIRE 2176 448 2176 352
WIRE 2176 448 2112 448
WIRE 1968 528 1968 352
WIRE 2016 528 1968 528
WIRE 2176 528 2128 528
WIRE 2240 528 2240 352
WIRE 2240 528 2176 528
WIRE 32 560 32 384
WIRE 112 560 96 560
WIRE 304 560 304 384
WIRE 304 560 192 560
WIRE 2016 624 2016 528
WIRE 2048 624 2016 624
WIRE 2176 624 2176 528
WIRE 2176 624 2112 624
WIRE 1968 736 1968 528
WIRE 2016 736 1968 736
WIRE 2048 736 2016 736
WIRE 2176 736 2128 736
WIRE 2240 736 2240 528
WIRE 2240 736 2176 736
WIRE -848 768 -1008 768
WIRE -672 768 -848 768
WIRE -480 768 -672 768
WIRE -32 768 -304 768
WIRE 32 768 32 560
WIRE 32 768 -32 768
WIRE 112 768 32 768
WIRE 240 768 192 768
WIRE 304 768 304 560
WIRE 304 768 240 768
WIRE 816 768 304 768
WIRE 912 768 816 768
WIRE -672 784 -672 768
WIRE 912 784 912 768
WIRE 816 816 816 768
WIRE -848 832 -848 768
WIRE 2016 832 2016 736
WIRE 2048 832 2016 832
WIRE -304 880 -304 768
WIRE 816 912 816 880
WIRE 912 912 912 864
WIRE -1008 944 -1008 768
WIRE -672 944 -672 864
WIRE 2176 960 2176 736
WIRE 2176 960 2128 960
WIRE -304 992 -304 960
WIRE -304 992 -352 992
WIRE 32 992 32 768
WIRE 112 992 96 992
WIRE 240 992 240 768
WIRE 240 992 192 992
WIRE -352 1008 -352 992
WIRE -1008 1040 -1008 1008
WIRE -848 1040 -848 912
WIRE -848 1040 -1008 1040
WIRE -720 1040 -848 1040
WIRE -672 1040 -720 1040
WIRE -304 1040 -304 992
WIRE 2016 1056 2016 832
WIRE 2048 1056 2016 1056
WIRE 2176 1056 2176 960
WIRE 2176 1056 2112 1056
WIRE -720 1072 -720 1040
WIRE 2176 1168 2176 1056
WIRE -304 1184 -304 1120
WIRE 688 1184 688 880
WIRE 688 1184 -304 1184
WIRE 2016 1200 2016 1056
WIRE -32 1296 -32 768
WIRE 2016 1296 2016 1280
WIRE 2016 1296 -32 1296
FLAG -720 1072 0
FLAG 816 912 0
FLAG 912 912 0
FLAG 2176 1168 0
FLAG -352 1008 0
SYMBOL res 208 -272 R90
WINDOW 0 0 56 VBottom 2
WINDOW 3 32 56 VTop 2
SYMATTR InstName R1
SYMATTR Value 1
SYMBOL res 208 -64 R90
WINDOW 0 0 56 VBottom 2
WINDOW 3 32 56 VTop 2
SYMATTR InstName R2
SYMATTR Value 10
SYMBOL res 208 160 R90
WINDOW 0 0 56 VBottom 2
WINDOW 3 32 56 VTop 2
SYMATTR InstName R3
SYMATTR Value 100
SYMBOL res 96 784 R270
WINDOW 0 32 56 VTop 2
WINDOW 3 0 56 VBottom 2
SYMATTR InstName R4
SYMATTR Value 100k
SYMBOL voltage -304 864 R0
WINDOW 123 24 124 Left 2
WINDOW 39 0 0 Left 0
SYMATTR Value2 AC 0.5
SYMATTR InstName V1
SYMATTR Value ""
SYMBOL cap 800 816 R0
SYMATTR InstName C6
SYMATTR Value 96p
SYMBOL res -384 752 R90
WINDOW 0 0 56 VBottom 2
WINDOW 3 32 56 VTop 2
SYMATTR InstName R7
SYMATTR Value 0.01
SYMBOL cap -688 944 R0
SYMATTR InstName C8
SYMATTR Value 96p
SYMBOL res -864 816 R0
SYMATTR InstName R8
SYMATTR Value 100k
SYMBOL res -688 768 R0
SYMATTR InstName R9
SYMATTR Value 20k20
SYMBOL cap -1024 944 R0
SYMATTR InstName C7
SYMATTR Value 119.46p
SYMBOL res 208 976 R90
WINDOW 0 0 56 VBottom 2
WINDOW 3 32 56 VTop 2
SYMATTR InstName R10
SYMATTR Value 1Meg
SYMBOL res 208 368 R90
WINDOW 0 0 56 VBottom 2
WINDOW 3 32 56 VTop 2
SYMATTR InstName R11
SYMATTR Value 1k
SYMBOL res 208 544 R90
WINDOW 0 0 56 VBottom 2
WINDOW 3 32 56 VTop 2
SYMATTR InstName R12
SYMATTR Value 10k
SYMBOL cap 96 544 R90
WINDOW 0 0 32 VBottom 2
WINDOW 3 32 32 VTop 2
SYMATTR InstName C11
SYMATTR Value 0.9p
SYMBOL res 672 784 R0
SYMATTR InstName R5
SYMATTR Value 100k
SYMBOL res 896 768 R0
SYMATTR InstName R13
SYMATTR Value 26Meg
SYMBOL res 2144 -304 R90
WINDOW 0 0 56 VBottom 2
WINDOW 3 32 56 VTop 2
SYMATTR InstName R14
SYMATTR Value 1
SYMBOL cap 2112 -208 R90
WINDOW 0 0 32 VBottom 2
WINDOW 3 32 32 VTop 2
SYMATTR InstName C5
SYMATTR Value 0.9p
SYMBOL res 2144 -96 R90
WINDOW 0 0 56 VBottom 2
WINDOW 3 32 56 VTop 2
SYMATTR InstName R15
SYMATTR Value 10
SYMBOL cap 2112 0 R90
WINDOW 0 0 32 VBottom 2
WINDOW 3 32 32 VTop 2
SYMATTR InstName C12
SYMATTR Value 0.9p
SYMBOL res 2144 128 R90
WINDOW 0 0 56 VBottom 2
WINDOW 3 32 56 VTop 2
SYMATTR InstName R16
SYMATTR Value 100
SYMBOL cap 2112 224 R90
WINDOW 0 0 32 VBottom 2
WINDOW 3 32 32 VTop 2
SYMATTR InstName C13
SYMATTR Value 0.9p
SYMBOL res 2032 752 R270
WINDOW 0 32 56 VTop 2
WINDOW 3 0 56 VBottom 2
SYMATTR InstName R17
SYMATTR Value 100k
SYMBOL cap 2112 816 R90
WINDOW 0 0 32 VBottom 2
WINDOW 3 32 32 VTop 2
SYMATTR InstName C14
SYMATTR Value 36p
SYMBOL res 2144 944 R90
WINDOW 0 0 56 VBottom 2
WINDOW 3 32 56 VTop 2
SYMATTR InstName R18
SYMATTR Value 1Meg
SYMBOL cap 2112 1040 R90
WINDOW 0 0 32 VBottom 2
WINDOW 3 32 32 VTop 2
SYMATTR InstName C15
SYMATTR Value 0.9p
SYMBOL res 2144 336 R90
WINDOW 0 0 56 VBottom 2
WINDOW 3 32 56 VTop 2
SYMATTR InstName R19
SYMATTR Value 1k
SYMBOL cap 2112 432 R90
WINDOW 0 0 32 VBottom 2
WINDOW 3 32 32 VTop 2
SYMATTR InstName C16
SYMATTR Value 0.9p
SYMBOL res 2144 512 R90
WINDOW 0 0 56 VBottom 2
WINDOW 3 32 56 VTop 2
SYMATTR InstName R20
SYMATTR Value 10k
SYMBOL cap 2112 608 R90
WINDOW 0 0 32 VBottom 2
WINDOW 3 32 32 VTop 2
SYMATTR InstName C17
SYMATTR Value 0.9p
SYMBOL res 2032 1296 R180
WINDOW 0 36 76 Left 2
WINDOW 3 36 40 Left 2
SYMATTR InstName R21
SYMATTR Value 0.001
SYMBOL cap 96 368 R90
WINDOW 0 0 32 VBottom 2
WINDOW 3 32 32 VTop 2
SYMATTR InstName C1
SYMATTR Value 0.9p
SYMBOL cap 96 976 R90
WINDOW 0 0 32 VBottom 2
WINDOW 3 32 32 VTop 2
SYMATTR InstName C2
SYMATTR Value 0.9p
SYMBOL cap 96 160 R90
WINDOW 0 0 32 VBottom 2
WINDOW 3 32 32 VTop 2
SYMATTR InstName C3
SYMATTR Value 0.9p
SYMBOL cap 96 -64 R90
WINDOW 0 0 32 VBottom 2
WINDOW 3 32 32 VTop 2
SYMATTR InstName C4
SYMATTR Value 0.9p
SYMBOL cap 96 -272 R90
WINDOW 0 0 32 VBottom 2
WINDOW 3 32 32 VTop 2
SYMATTR InstName C9
SYMATTR Value 0.9p
SYMBOL voltage -304 1024 R0
WINDOW 123 24 124 Left 2
WINDOW 39 0 0 Left 0
SYMATTR Value2 AC 0.5 0
SYMATTR InstName V2
SYMATTR Value ""
TEXT -656 1168 Left 2 !.ac dec 1000 1 10E6
